matlab/DependabilityModelingSoftware-main/simulator/code/data/ieee30.m
% File generated by PSAT from IEEE/CDF data file.
% ------------------------------------------------------------------------------
% Author:   Federico Milano
% E-mail:   fmilano@thunderbox.uwaterloo.ca
% Web-site: http://thunderbox.uwaterloo.ca/~fmilano
% ------------------------------------------------------------------------------
%  08/20/93 UW ARCHIVE           100.0  1961 W IEEE 30 Bus Test Case

Bus.con = [ ...
   1  132.00  1.06000  0.00000  1  1;
   2  132.00  1.04500 -0.09564  1  1;
   3  132.00  1.02100 -0.13893  1  1;
   4  132.00  1.01200 -0.16790  1  1;
   5  132.00  1.01000 -0.25080  1  1;
   6  132.00  1.01000 -0.19792  1  1;
   7  132.00  1.00200 -0.22899  1  1;
   8  132.00  1.01000 -0.21118  1  1;
   9    1.00  1.05100 -0.25098  1  1;
  10   33.00  1.04500 -0.27873  1  1;
  11   11.00  1.08200 -0.25115  1  1;
  12   33.00  1.05700 -0.26599  1  1;
  13   11.00  1.07100 -0.26599  1  1;
  14   33.00  1.04200 -0.28152  1  1;
  15   33.00  1.03800 -0.28309  1  1;
  16   33.00  1.04500 -0.27629  1  1;
  17   33.00  1.04000 -0.28170  1  1;
  18   33.00  1.02800 -0.29356  1  1;
  19   33.00  1.02600 -0.29671  1  1;
  20   33.00  1.03000 -0.29322  1  1;
  21   33.00  1.03300 -0.28658  1  1;
  22   33.00  1.03300 -0.28641  1  1;
  23   33.00  1.02700 -0.28990  1  1;
  24   33.00  1.02100 -0.29287  1  1;
  25   33.00  1.01700 -0.28536  1  1;
  26   33.00  1.00000 -0.29269  1  1;
  27   33.00  1.02300 -0.27611  1  1;
  28  132.00  1.00700 -0.20892  1  1;
  29   33.00  1.00300 -0.29775  1  1;
  30   33.00  0.99200 -0.31311  1  1;
  ];

SW.con = [ ...
   1 100.0 132.00  1.06000  0.00000  0.00000  0.00000 1.1 0.9  2.60200 1 1 1;
  ];

PV.con = [ ...
   2 100.0 132.00  0.40000  1.04500  0.50000 -0.40000 1.1 0.9 1  1;
   5 100.0 132.00  0.00000  1.01000  0.40000 -0.40000 1.1 0.9 1  1;
   8 100.0 132.00  0.00000  1.01000  0.40000 -0.10000 1.1 0.9 1  1;
  11 100.0  11.00  0.00000  1.08200  0.24000 -0.06000 1.1 0.9 1  1;
  13 100.0  11.00  0.00000  1.07100  0.24000 -0.06000 1.1 0.9 1  1;
  ];

PQ.con = [ ...
   2 100.0 132.00  0.21700  0.12700 1.1 0.9 1  1;
   3 100.0 132.00  0.02400  0.01200 1.1 0.9 1  1;
   4 100.0 132.00  0.07600  0.01600 1.1 0.9 1  1;
   5 100.0 132.00  0.94200  0.19000 1.1 0.9 1  1;
   7 100.0 132.00  0.22800  0.10900 1.1 0.9 1  1;
   8 100.0 132.00  0.30000  0.30000 1.1 0.9 1  1;
  10 100.0  33.00  0.05800  0.02000 1.1 0.9 1  1;
  12 100.0  33.00  0.11200  0.07500 1.1 0.9 1  1;
  14 100.0  33.00  0.06200  0.01600 1.1 0.9 1  1;
  15 100.0  33.00  0.08200  0.02500 1.1 0.9 1  1;
  16 100.0  33.00  0.03500  0.01800 1.1 0.9 1  1;
  17 100.0  33.00  0.09000  0.05800 1.1 0.9 1  1;
  18 100.0  33.00  0.03200  0.00900 1.1 0.9 1  1;
  19 100.0  33.00  0.09500  0.03400 1.1 0.9 1  1;
  20 100.0  33.00  0.02200  0.00700 1.1 0.9 1  1;
  21 100.0  33.00  0.17500  0.11200 1.1 0.9 1  1;
  23 100.0  33.00  0.03200  0.01600 1.1 0.9 1  1;
  24 100.0  33.00  0.08700  0.06700 1.1 0.9 1  1;
  26 100.0  33.00  0.03500  0.02300 1.1 0.9 1  1;
  29 100.0  33.00  0.02400  0.00900 1.1 0.9 1  1;
  30 100.0  33.00  0.10600  0.01900 1.1 0.9 1  1;
  ];

Shunt.con = [ ...
  10 100.0  33.00 60  0.00000  0.19000  1;
  24 100.0  33.00 60  0.00000  0.04300  1;
  ];

Line.con = [ ...
   1    2  100.00 132.00 60 0   0.0000  0.01920  0.05750  0.05280  0.00000  0.00000 0    0.000    0.000  1;
   1    3  100.00 132.00 60 0   0.0000  0.04520  0.16520  0.04080  0.00000  0.00000 0    0.000    0.000  1;
   2    4  100.00 132.00 60 0   0.0000  0.05700  0.17370  0.03680  0.00000  0.00000 0    0.000    0.000  1;
   3    4  100.00 132.00 60 0   0.0000  0.01320  0.03790  0.00840  0.00000  0.00000 0    0.000    0.000  1;
   2    5  100.00 132.00 60 0   0.0000  0.04720  0.19830  0.04180  0.00000  0.00000 0    0.000    0.000  1;
   2    6  100.00 132.00 60 0   0.0000  0.05810  0.17630  0.03740  0.00000  0.00000 0    0.000    0.000  1;
   4    6  100.00 132.00 60 0   0.0000  0.01190  0.04140  0.00900  0.00000  0.00000 0    0.000    0.000  1;
   5    7  100.00 132.00 60 0   0.0000  0.04600  0.11600  0.02040  0.00000  0.00000 0    0.000    0.000  1;
   6    7  100.00 132.00 60 0   0.0000  0.02670  0.08200  0.01700  0.00000  0.00000 0    0.000    0.000  1;
   6    8  100.00 132.00 60 0   0.0000  0.01200  0.04200  0.00900  0.00000  0.00000 0    0.000    0.000  1;
   6    9  100.00 132.00 60 0 132.0000  0.00000  0.20800  0.00000  0.97800  0.00000 0    0.000    0.000  1;
   6   10  100.00 132.00 60 0   4.0000  0.00000  0.55600  0.00000  0.96900  0.00000 0    0.000    0.000  1;
   9   11  100.00   1.00 60 0   0.0909  0.00000  0.20800  0.00000  0.00000  0.00000 0    0.000    0.000  1;
   9   10  100.00   1.00 60 0   0.0303  0.00000  0.11000  0.00000  0.00000  0.00000 0    0.000    0.000  1;
   4   12  100.00 132.00 60 0   4.0000  0.00000  0.25600  0.00000  0.93200  0.00000 0    0.000    0.000  1;
  12   13  100.00  33.00 60 0   3.0000  0.00000  0.14000  0.00000  0.00000  0.00000 0    0.000    0.000  1;
  12   14  100.00  33.00 60 0   0.0000  0.12310  0.25590  0.00000  0.00000  0.00000 0    0.000    0.000  1;
  12   15  100.00  33.00 60 0   0.0000  0.06620  0.13040  0.00000  0.00000  0.00000 0    0.000    0.000  1;
  12   16  100.00  33.00 60 0   0.0000  0.09450  0.19870  0.00000  0.00000  0.00000 0    0.000    0.000  1;
  14   15  100.00  33.00 60 0   0.0000  0.22100  0.19970  0.00000  0.00000  0.00000 0    0.000    0.000  1;
  16   17  100.00  33.00 60 0   0.0000  0.05240  0.19230  0.00000  0.00000  0.00000 0    0.000    0.000  1;
  15   18  100.00  33.00 60 0   0.0000  0.10730  0.21850  0.00000  0.00000  0.00000 0    0.000    0.000  1;
  18   19  100.00  33.00 60 0   0.0000  0.06390  0.12920  0.00000  0.00000  0.00000 0    0.000    0.000  1;
  19   20  100.00  33.00 60 0   0.0000  0.03400  0.06800  0.00000  0.00000  0.00000 0    0.000    0.000  1;
  10   20  100.00  33.00 60 0   0.0000  0.09360  0.20900  0.00000  0.00000  0.00000 0    0.000    0.000  1;
  10   17  100.00  33.00 60 0   0.0000  0.03240  0.08450  0.00000  0.00000  0.00000 0    0.000    0.000  1;
  10   21  100.00  33.00 60 0   0.0000  0.03480  0.07490  0.00000  0.00000  0.00000 0    0.000    0.000  1;
  10   22  100.00  33.00 60 0   0.0000  0.07270  0.14990  0.00000  0.00000  0.00000 0    0.000    0.000  1;
  21   22  100.00  33.00 60 0   0.0000  0.01160  0.02360  0.00000  0.00000  0.00000 0    0.000    0.000  1;
  15   23  100.00  33.00 60 0   0.0000  0.10000  0.20200  0.00000  0.00000  0.00000 0    0.000    0.000  1;
  22   24  100.00  33.00 60 0   0.0000  0.11500  0.17900  0.00000  0.00000  0.00000 0    0.000    0.000  1;
  23   24  100.00  33.00 60 0   0.0000  0.13200  0.27000  0.00000  0.00000  0.00000 0    0.000    0.000  1;
  24   25  100.00  33.00 60 0   0.0000  0.18850  0.32920  0.00000  0.00000  0.00000 0    0.000    0.000  1;
  25   26  100.00  33.00 60 0   0.0000  0.25440  0.38000  0.00000  0.00000  0.00000 0    0.000    0.000  1;
  25   27  100.00  33.00 60 0   0.0000  0.10930  0.20870  0.00000  0.00000  0.00000 0    0.000    0.000  1;
  28   27  100.00 132.00 60 0   4.0000  0.00000  0.39600  0.00000  0.96800  0.00000 0    0.000    0.000  1;
  27   29  100.00  33.00 60 0   0.0000  0.21980  0.41530  0.00000  0.00000  0.00000 0    0.000    0.000  1;
  27   30  100.00  33.00 60 0   0.0000  0.32020  0.60270  0.00000  0.00000  0.00000 0    0.000    0.000  1;
  29   30  100.00  33.00 60 0   0.0000  0.23990  0.45330  0.00000  0.00000  0.00000 0    0.000    0.000  1;
   8   28  100.00 132.00 60 0   0.0000  0.06360  0.20000  0.04280  0.00000  0.00000 0    0.000    0.000  1;
   6   28  100.00 132.00 60 0   0.0000  0.01690  0.05990  0.01300  0.00000  0.00000 0    0.000    0.000  1;
  ];

Areas.con = [ ...
   1 0 100.0 0 0 0 0 0;
  ];

Bus.names = { ...
  'Glen Lyn 132'; 'Claytor  132'; 'Kumis    132'; 'Hancock  132'; 'Fieldale 132';
  'Roanoke  132'; 'Blaine   132'; 'Reusens  132'; 'Roanoke  1.0'; 'Roanoke   33';
  'Roanoke   11'; 'Hancock   33'; 'Hancock   11'; 'Bus 14    33'; 'Bus 15    33';
  'Bus 16    33'; 'Bus 17    33'; 'Bus 18    33'; 'Bus 19    33'; 'Bus 20    33';
  'Bus 21    33'; 'Bus 22    33'; 'Bus 23    33'; 'Bus 24    33'; 'Bus 25    33';
  'Bus 26    33'; 'Cloverdle 33'; 'Cloverdle132'; 'Bus 29    33'; 'Bus 30    33'};

Areas.names = { ...
  'IEEE30BUS'};

